   29
Created with kallisto
C     -5.1089    0.8159    1.2742
O     -3.7026    0.9495    1.2330
C     -2.9795    0.0704    0.4310
C     -3.6005   -0.9070   -0.3074
C     -2.8108   -1.7317   -1.0718
C     -1.4461   -1.5778   -1.0917
C     -0.7838   -0.5858   -0.3458
N      0.6262   -0.5031   -0.4283
C      1.4355    0.4311    0.2398
O      0.9191    1.2950    0.9935
C      2.9144    0.4115    0.0659
C      3.5632   -0.2910   -0.8883
C      4.9639   -0.2282   -0.9393
C      5.6398    0.5457   -0.0184
F      6.9922    0.5756   -0.1068
N      4.9880    1.2319    0.9150
C      3.6461    1.1760    0.9695
C     -1.6005    0.2119    0.3992
H     -5.3138   -0.2103    1.6941
H     -5.4813    0.9000    0.2394
H     -5.5525    1.5614    1.9658
H     -4.6769   -1.0002   -0.2685
H     -3.2954   -2.4926   -1.6465
H     -0.8547   -2.2456   -1.7055
H      1.1474   -1.2124   -1.0512
H      3.0159   -0.8850   -1.5974
H      5.4339   -0.8028   -1.7138
H      3.1223    1.7522    1.7514
H     -1.2006    1.0035    1.0091
